Version 4
SHEET 1 1164 1884
WIRE -416 240 -736 240
WIRE -256 240 -320 240
WIRE -160 240 -256 240
WIRE -736 272 -736 240
WIRE -368 320 -368 288
WIRE -256 320 -368 320
WIRE 48 352 48 336
WIRE -368 368 -368 320
WIRE -160 368 -160 240
WIRE -736 384 -736 352
WIRE 48 448 48 432
WIRE -496 480 -496 464
WIRE -528 496 -576 496
WIRE -368 512 -368 448
WIRE -368 512 -464 512
WIRE -160 512 -160 448
WIRE -528 528 -736 528
WIRE -736 560 -736 528
WIRE -496 560 -496 544
WIRE -368 576 -368 512
WIRE -736 672 -736 640
WIRE -576 672 -576 496
WIRE -368 672 -368 656
WIRE -368 672 -576 672
WIRE -368 688 -368 672
WIRE -368 784 -368 768
FLAG -736 384 0
FLAG -496 560 0
FLAG -496 464 +24V
FLAG 48 448 0
FLAG 48 336 +24V
FLAG -736 672 0
FLAG -160 512 0
FLAG -368 784 0
SYMBOL Ureg -368 256 R0
WINDOW 38 -64 -60 Left 2
SYMATTR SpiceModel LM317/TI
SYMATTR InstName LM317
SYMATTR Prefix X
SYMBOL voltage -736 256 R0
WINDOW 123 0 0 Left 0
WINDOW 39 0 0 Left 0
SYMATTR InstName V1
SYMATTR Value 18
SYMBOL Misc\\EuropeanResistor -272 224 R0
SYMATTR InstName R1
SYMATTR Value 220
SYMBOL OpAmps\\LTC6244 -496 512 R0
SYMATTR InstName U1
SYMBOL voltage -736 544 R0
SYMATTR InstName V2
SYMATTR Value 2.048
SYMBOL voltage 48 336 R0
WINDOW 123 0 0 Left 0
WINDOW 39 0 0 Left 0
SYMATTR InstName V3
SYMATTR Value 12
SYMBOL res -176 352 R0
SYMATTR InstName R2
SYMATTR Value 50
SYMBOL res -384 560 R0
SYMATTR InstName R3
SYMATTR Value 29k
SYMBOL res -384 672 R0
SYMATTR InstName R4
SYMATTR Value 10k
SYMBOL res -384 352 R0
SYMATTR InstName R5
SYMATTR Value 1000
TEXT -816 752 Left 2 !.dc V2 0 2.048 0.001
TEXT -256 176 Left 2 !.lib LM317_adj.lib
